---- qbsp / ericw-tools 2.0.0-alpha8-26-ged62ec10 ----

--- Options Summary ---
    "nocolor" was set to "1" (from command line)

Input file: C:\Users\fatgu\Desktop\quake-leveldesign-starterkit-20240916-windows\2faced_church\2faced_chruch-compile.map
Output file: C:\Users\fatgu\Desktop\quake-leveldesign-starterkit-20240916-windows\2faced_church\2faced_chruch.bsp

INFO: using built-in palette.
      2 entities
     14 unique textures
    383 texinfos
    514 unique planes

INFO: world extents calculated to 6582 units
    101 brushes
    645 sides
    228 side bevels

            0 texture frames added
WARNING: unable to find texture skip
Processing hull 0...
    93 SOLID brushes
    93 brushes total
    591 visible sides
INFO: calculating BSP for 93 brushes with 591 sides
     93 brushes
    591 visible faces
    1,910 nodes
    1,241 expensive split nodes
      669 mid-split nodes
    1,911 leaves
      784 EMPTY leafs
    1,127 SOLID leafs
    1,911 leafs total
    32 max tree height
    15 avg tree height
    71 tiny portals
    7,988 tree portals
WARNING: Reached occupant "info_player_start" at (-416 288 72), no filling performed.
Leak file written to 2faced_chruch.pts
            8 portals written to 2faced_chruch.leak.prt
    71 tiny portals
    7,988 tree portals
WARNING: 2 sides not found (use -verbose to display)
    1,843 sides visible
    1,843 makefaces
      343 merged
      740 subdivided
    515 nodes pruned
      784 EMPTY leafs
      612 SOLID leafs
    1,396 leafs total
    32 max tree height
    14 avg tree height
        6 edges degenerated
    1,634 edges added by tjunctions
    2,109 faces optimized through MWT
    5,885 triangles computed from MWT
      413 faces created via optimization of MWT triangles
    5,739 edges
    2,653 faces
Processing hull 1...
WARNING: Reached occupant "info_player_start" at (-416 288 72), no filling performed.
Processing hull 2...
WARNING: Reached occupant "info_player_start" at (-416 288 72), no filling performed.
WARNING: worldspawn at 0 0 0 has long value for key wad (length 231 >= 127)
Writing 2faced_chruch.bsp as Quake BSP bsp29
Wrote 2faced_chruch.bsp

count   lump name    byte size 
      1 models               64
   1006 planes            20120
   2940 vertexes          35280
   1395 nodes             33480
    262 texinfos          10480
   2653 faces             53060
  18424 clipnodes        147392
    785 leafs             21980
   2939 marksurfaces       5878
   5740 edges             22960
  11328 surfedges         45312
     14 textures         218180
        lightdata             0
        visdata               0
        entdata             362

0.314s seconds elapsed


