---- qbsp / ericw-tools 2.0.0-alpha8-26-ged62ec10 ----

--- Options Summary ---
    "nocolor" was set to "1" (from command line)

Input file: C:\Users\fatgu\Desktop\quake-leveldesign-starterkit-20240916-windows\2faced_church\2faced_chruch-compile.map
Output file: C:\Users\fatgu\Desktop\quake-leveldesign-starterkit-20240916-windows\2faced_church\2faced_chruch.bsp

INFO: using built-in palette.
       10 entities
       18 unique textures
      991 texinfos
    1,272 unique planes

INFO: world extents calculated to 6582 units
      293 brushes
    1,799 sides
      700 side bevels

            0 texture frames added
WARNING: unable to find texture skip
Processing hull 0...
    224 SOLID brushes
    224 brushes total
    1,359 visible sides
INFO: calculating BSP for 224 brushes with 1359 sides
      224 brushes
    1,359 visible faces
    3,467 nodes
    2,688 expensive split nodes
      779 mid-split nodes
    3,468 leaves
    1,610 EMPTY leafs
    1,858 SOLID leafs
    3,468 leafs total
    34 max tree height
    15 avg tree height
    110 tiny portals
    15,080 tree portals
WARNING: Reached occupant "info_player_start" at (-416 288 72), no filling performed.
Leak file written to 2faced_chruch.pts
            8 portals written to 2faced_chruch.leak.prt
    110 tiny portals
    15,080 tree portals
WARNING: 2 sides not found (use -verbose to display)
    3,965 sides visible
    3,965 makefaces
      726 merged
      828 subdivided
    717 nodes pruned
    1,610 EMPTY leafs
    1,141 SOLID leafs
    2,751 leafs total
    31 max tree height
    15 avg tree height
         2 edges degenerated
     3,176 edges added by tjunctions
     3,644 faces optimized through MWT
    10,535 triangles computed from MWT
       828 faces created via optimization of MWT triangles
    10,530 edges
     4,895 faces
Processing hull 1...
WARNING: Reached occupant "info_player_start" at (-416 288 72), no filling performed.
Processing hull 2...
WARNING: Reached occupant "info_player_start" at (-416 288 72), no filling performed.
WARNING: worldspawn at 0 0 0 has long value for key wad (length 231 >= 127)
LIMITS EXCEEDED ON dclipnode_t::children
NOTE: limits exceeded for Quake BSP - switching to Quake BSP2
Writing 2faced_chruch.bsp as Quake BSP2 bsp2
Wrote 2faced_chruch.bsp

count   lump name    byte size 
      1 models               64
   2248 planes            44960
   5335 vertexes          64020
   2750 nodes            121000
    540 texinfos          21600
   4895 faces            137060
  71551 clipnodes        858612
   1611 leafs             70884
   5631 marksurfaces      22524
  10531 edges             84248
  20750 surfedges         83000
     18 textures         240116
        lightdata             0
        visdata               0
        entdata             362

0.954s seconds elapsed


