---- qbsp / ericw-tools 2.0.0-alpha8-26-ged62ec10 ----

--- Options Summary ---
    "nocolor" was set to "1" (from command line)

Input file: C:\Users\fatgu\Desktop\quake-leveldesign-starterkit-20240916-windows\working\quake\2faced_church-compile.map
Output file: C:\Users\fatgu\Desktop\quake-leveldesign-starterkit-20240916-windows\working\quake\2faced_church.bsp

INFO: using built-in palette.
WARNING: 2faced_church-compile.map[line 6]: Unrecognised string escape - \.
WARNING: 2faced_church-compile.map[line 6]: Unrecognised string escape - \e
WARNING: 2faced_church-compile.map[line 6]: Unrecognised string escape - \q
WARNING: 2faced_church-compile.map[line 6]: Unrecognised string escape - \w
WARNING: 2faced_church-compile.map[line 6]: Unrecognised string escape - \u
WARNING: 2faced_church-compile.map[line 6]: Unrecognised string escape - \.
WARNING: 2faced_church-compile.map[line 6]: Unrecognised string escape - \e
WARNING: 2faced_church-compile.map[line 6]: Unrecognised string escape - \q
WARNING: 2faced_church-compile.map[line 6]: Unrecognised string escape - \w
WARNING: 2faced_church-compile.map[line 6]: Unrecognised string escape - \M
WARNING: 2faced_church-compile.map[line 6]: Unrecognised string escape - \.
WARNING: 2faced_church-compile.map[line 6]: Unrecognised string escape - \e
WARNING: 2faced_church-compile.map[line 6]: Unrecognised string escape - \q
WARNING: 2faced_church-compile.map[line 6]: Unrecognised string escape - \w
WARNING: 2faced_church-compile.map[line 6]: Unrecognised string escape - \D
WARNING: 2faced_church-compile.map[line 6]: Unrecognised string escape - \.
WARNING: 2faced_church-compile.map[line 6]: Unrecognised string escape - \e
WARNING: 2faced_church-compile.map[line 6]: Unrecognised string escape - \q
WARNING: 2faced_church-compile.map[line 6]: Unrecognised string escape - \w
WARNING: 2faced_church-compile.map[line 6]: Unrecognised string escape - \d
WARNING: 2faced_church-compile.map[line 6]: Unrecognised string escape - \.
WARNING: 2faced_church-compile.map[line 6]: Unrecognised string escape - \e
WARNING: 2faced_church-compile.map[line 6]: Unrecognised string escape - \q
WARNING: 2faced_church-compile.map[line 6]: Unrecognised string escape - \w
WARNING: 2faced_church-compile.map[line 6]: Unrecognised string escape - \a
WARNING: 2faced_church-compile.map[line 6]: Unrecognised string escape - \.
WARNING: 2faced_church-compile.map[line 6]: Unrecognised string escape - \e
WARNING: 2faced_church-compile.map[line 6]: Unrecognised string escape - \q
WARNING: 2faced_church-compile.map[line 6]: Unrecognised string escape - \Q
       94 entities
       81 unique textures
    1,772 texinfos
    2,664 unique planes

INFO: world extents calculated to 8180 units
      522 brushes
    3,513 sides
    1,131 side bevels

            0 texture frames added
WARNING: unable to find texture 64_grey_1
WARNING: unable to find texture 64_blue_3
WARNING: unable to find texture 64_cyan_3
WARNING: unable to find texture 32_brown_2
Processing hull 0...
    330 SOLID brushes
      1 SKY brushes
     48 DETAIL_WALL | Q2_UNUSED_8 brushes
    379 brushes total
    2,605 visible sides
INFO: calculating BSP for 379 brushes with 2605 sides
      379 brushes
    2,605 visible faces
    4,907 nodes
    4,717 expensive split nodes
      190 mid-split nodes
    4,908 leaves
    2,264 EMPTY leafs
      160 SKY leafs
    2,333 SOLID leafs
      151 DETAIL_WALL | Q2_UNUSED_8 leafs
    4,908 leafs total
    80 max tree height
    25 avg tree height
    152 tiny portals
    21,631 tree portals
    292 outside leaves
    0 detail filled leafs
      379 brushes
    2,043 visible faces
      562 non-visible faces
    4,560 nodes
    1,143 non-visible nodes
    4,560 expensive split nodes
    4,561 leaves
    2,161 EMPTY leafs
      101 SKY leafs
    2,148 SOLID leafs
      151 DETAIL_WALL | Q2_UNUSED_8 leafs
    4,561 leafs total
    76 max tree height
    25 avg tree height
    193 tiny portals
    20,398 tree portals
    414 outside leaves
    0 detail filled leafs
    193 tiny portals
    20,398 tree portals
WARNING: 4 sides not found (use -verbose to display)
    5,076 sides visible
    5,051 makefaces
    1,253 merged
    1,079 subdivided
    1,375 nodes pruned
    129 tiny portals
    1,848 player-occupiable leaves
    1,123 clusters of leaves
    3,773 vis portals
    1,338 SOLID leafs
      101 SKY leafs
    1,747 EMPTY leafs
    3,186 leafs total
    76 max tree height
    27 avg tree height
         3 edges degenerated
     4,286 edges added by tjunctions
     4,304 faces optimized through MWT
    13,065 triangles computed from MWT
     1,209 faces created via optimization of MWT triangles
    13,138 edges
     6,086 faces
Processing hull 1...
Processing hull 2...
WARNING: worldspawn at 0 0 0 has long value for key wad (length 249 >= 127)
Writing 2faced_church.bsp as Quake BSP bsp29
Wrote 2faced_church.bsp

count   lump name    byte size 
      1 models               64
   2475 planes            49500
   6637 vertexes          79644
   3185 nodes             76440
    991 texinfos          39640
   6086 faces            121720
   7116 clipnodes         56928
   1849 leafs             51772
   7249 marksurfaces      14498
  13139 edges             52556
  25810 surfedges        103240
     81 textures        1321664
        lightdata             0
        visdata               0
        entdata            5871

2.779s seconds elapsed


