---- qbsp / ericw-tools 2.0.0-alpha8-26-ged62ec10 ----

--- Options Summary ---
    "nocolor" was set to "1" (from command line)

Input file: C:\Users\fatgu\Desktop\quake-leveldesign-starterkit-20240916-windows\2faced_church\2faced_chruch-compile.map
Output file: C:\Users\fatgu\Desktop\quake-leveldesign-starterkit-20240916-windows\2faced_church\2faced_chruch.bsp

INFO: using built-in palette.
       30 entities
       20 unique textures
    1,030 texinfos
    1,380 unique planes

INFO: world extents calculated to 6264 units
      315 brushes
    1,929 sides
      700 side bevels

            0 texture frames added
WARNING: unable to find texture skip
WARNING: unable to find texture __TB_empty
Processing hull 0...
    246 SOLID brushes
    246 brushes total
    1,489 visible sides
INFO: calculating BSP for 246 brushes with 1489 sides
      246 brushes
    1,459 visible faces
       30 non-visible faces
    3,318 nodes
       31 non-visible nodes
    3,036 expensive split nodes
      282 mid-split nodes
    3,319 leaves
    1,302 EMPTY leafs
    2,017 SOLID leafs
    3,319 leafs total
    42 max tree height
    18 avg tree height
    139 tiny portals
    14,334 tree portals
WARNING: Reached occupant "info_player_deathmatch" at (-1577.54 -2232 68), no filling performed.
Leak file written to 2faced_chruch.pts
            4 portals written to 2faced_chruch.leak.prt
    139 tiny portals
    14,334 tree portals
WARNING: 4 sides not found (use -verbose to display)
    3,672 sides visible
    3,672 makefaces
      694 merged
    1,775 subdivided
    806 nodes pruned
    1,302 EMPTY leafs
    1,211 SOLID leafs
    2,513 leafs total
    41 max tree height
    17 avg tree height
         2 edges degenerated
     3,430 edges added by tjunctions
     4,298 faces optimized through MWT
    12,073 triangles computed from MWT
       835 faces created via optimization of MWT triangles
    11,955 edges
     5,534 faces
Processing hull 1...
WARNING: Reached occupant "info_player_deathmatch" at (-696 -2688 66), no filling performed.
Processing hull 2...
WARNING: Reached occupant "info_player_deathmatch" at (-696 -2688 66), no filling performed.
WARNING: worldspawn at 0 0 0 has long value for key wad (length 231 >= 127)
LIMITS EXCEEDED ON dclipnode_t::children
NOTE: limits exceeded for Quake BSP - switching to Quake BSP2
Writing 2faced_chruch.bsp as Quake BSP2 bsp2
Wrote 2faced_chruch.bsp

count   lump name    byte size 
      1 models               64
   2338 planes            46760
   6093 vertexes          73116
   2512 nodes            110528
    568 texinfos          22720
   5534 faces            154952
  76043 clipnodes        912516
   1303 leafs             57332
   6156 marksurfaces      24624
  11956 edges             95648
  23542 surfedges         94168
     20 textures         245604
        lightdata             0
        visdata               0
        entdata            1721

1.071s seconds elapsed


