---- qbsp / ericw-tools 2.0.0-alpha8-26-ged62ec10 ----

--- Options Summary ---
    "nocolor" was set to "1" (from command line)

Input file: C:\Users\fatgu\Desktop\quake-leveldesign-starterkit-20240916-windows\2faced_church\2faced_chruch-compile.map
Output file: C:\Users\fatgu\Desktop\quake-leveldesign-starterkit-20240916-windows\2faced_church\2faced_chruch.bsp

INFO: using built-in palette.
      2 entities
     10 unique textures
    169 texinfos
    142 unique planes

INFO: world extents calculated to 6582 units
     40 brushes
    236 sides
     22 side bevels

            0 texture frames added
WARNING: unable to find texture skip
Processing hull 0...
    35 SOLID brushes
    35 brushes total
    206 visible sides
INFO: calculating BSP for 35 brushes with 206 sides
     35 brushes
    206 visible faces
    427 nodes
    226 expensive split nodes
    201 mid-split nodes
    428 leaves
    193 EMPTY leafs
    235 SOLID leafs
    428 leafs total
    16 max tree height
    11 avg tree height
    1 tiny portals
    1,760 tree portals
WARNING: Reached occupant "info_player_start" at (-416 288 72), no filling performed.
Leak file written to 2faced_chruch.pts
            5 portals written to 2faced_chruch.leak.prt
    1 tiny portals
    1,760 tree portals
    426 sides visible
    426 makefaces
     58 merged
    596 subdivided
    94 nodes pruned
    193 EMPTY leafs
    141 SOLID leafs
    334 leafs total
    16 max tree height
    10 avg tree height
      726 edges added by tjunctions
      960 faces optimized through MWT
    2,648 triangles computed from MWT
      197 faces created via optimization of MWT triangles
    2,524 edges
    1,161 faces
Processing hull 1...
WARNING: Reached occupant "info_player_start" at (-416 288 72), no filling performed.
Processing hull 2...
WARNING: Reached occupant "info_player_start" at (-416 288 72), no filling performed.
WARNING: worldspawn at 0 0 0 has long value for key wad (length 231 >= 127)
Writing 2faced_chruch.bsp as Quake BSP bsp29
Wrote 2faced_chruch.bsp

count   lump name    byte size 
      1 models               64
    200 planes             4000
   1287 vertexes          15444
    333 nodes              7992
    106 texinfos           4240
   1161 faces             23220
   4308 clipnodes         34464
    194 leafs              5432
   1172 marksurfaces       2344
   2525 edges             10100
   4974 surfedges         19896
     10 textures         163604
        lightdata             0
        visdata               0
        entdata             362

0.077s seconds elapsed


