---- qbsp / ericw-tools 2.0.0-alpha8-26-ged62ec10 ----

--- Options Summary ---
    "nocolor" was set to "1" (from command line)

Input file: C:\Users\fatgu\Desktop\quake-leveldesign-starterkit-20240916-windows\2faced_church\2faced_chruch-compile.map
Output file: C:\Users\fatgu\Desktop\quake-leveldesign-starterkit-20240916-windows\2faced_church\2faced_chruch.bsp

INFO: using built-in palette.
      2 entities
     10 unique textures
    203 texinfos
    170 unique planes

INFO: world extents calculated to 6582 units
     49 brushes
    291 sides
     23 side bevels

            0 texture frames added
WARNING: unable to find texture skip
Processing hull 0...
    44 SOLID brushes
    44 brushes total
    261 visible sides
INFO: calculating BSP for 44 brushes with 261 sides
     44 brushes
    261 visible faces
    690 nodes
    307 expensive split nodes
    383 mid-split nodes
    691 leaves
    304 EMPTY leafs
    387 SOLID leafs
    691 leafs total
    17 max tree height
    12 avg tree height
    1 tiny portals
    2,774 tree portals
WARNING: Reached occupant "info_player_start" at (-416 288 72), no filling performed.
Leak file written to 2faced_chruch.pts
            5 portals written to 2faced_chruch.leak.prt
    1 tiny portals
    2,774 tree portals
    680 sides visible
    680 makefaces
     89 merged
    720 subdivided
    172 nodes pruned
    304 EMPTY leafs
    215 SOLID leafs
    519 leafs total
    16 max tree height
    11 avg tree height
    1,037 edges added by tjunctions
    1,307 faces optimized through MWT
    3,654 triangles computed from MWT
      271 faces created via optimization of MWT triangles
    3,453 edges
    1,582 faces
Processing hull 1...
WARNING: Reached occupant "info_player_start" at (-416 288 72), no filling performed.
Processing hull 2...
WARNING: Reached occupant "info_player_start" at (-416 288 72), no filling performed.
WARNING: worldspawn at 0 0 0 has long value for key wad (length 231 >= 127)
Writing 2faced_chruch.bsp as Quake BSP bsp29
Wrote 2faced_chruch.bsp

count   lump name    byte size 
      1 models               64
    241 planes             4820
   1775 vertexes          21300
    518 nodes             12432
    132 texinfos           5280
   1582 faces             31640
   5065 clipnodes         40520
    305 leafs              8540
   1630 marksurfaces       3260
   3454 edges             13816
   6822 surfedges         27288
     10 textures         163604
        lightdata             0
        visdata               0
        entdata             362

0.100s seconds elapsed


